
#======================================================================
# CRYSTAL DATA
#----------------------------------------------------------------------
data_VESTA_phase_1

_chemical_name_common                  'Delta_5_DFT(A2)'
_cell_length_a                         12.197000
_cell_length_b                         11.299000
_cell_length_c                         11.410000
_cell_angle_alpha                      90.000000
_cell_angle_beta                       104.629997
_cell_angle_gamma                      90.000000
_cell_volume                           1521.472871
_space_group_name_H-M_alt              'A 2'
_space_group_IT_number                 5

loop_
_space_group_symop_operation_xyz
   'x, y, z'
   '-x, y, -z'
   'x, y+1/2, z+1/2'
   '-x, y+1/2, -z+1/2'

loop_
   _atom_site_label
   _atom_site_occupancy
   _atom_site_fract_x
   _atom_site_fract_y
   _atom_site_fract_z
   _atom_site_adp_type
   _atom_site_U_iso_or_equiv
   _atom_site_type_symbol
   Al1        1.0     0.916900     0.745200     0.349000    Uiso  ? Al
   Al2        1.0     0.167400     0.635300     0.422400    Uiso  ? Al
   Al3        1.0     0.171000     0.617500     0.923000    Uiso  ? Al
   Al4        1.0     0.177200     0.869000     0.930200    Uiso  ? Al
   Al5        1.0     0.323100     0.003000     0.821800    Uiso  ? Al
   Al6        1.0     0.326800     0.756500     0.326200    Uiso  ? Al
   Al7        1.0     0.000000     0.994700     0.000000    Uiso  ? Al
   Al8        1.0     0.000000     0.484000     0.000000    Uiso  ? Al
   Al9        1.0     0.998200     0.990500     0.253600    Uiso  ? Al
   Al10       1.0     0.500000     0.391300     0.000000    Uiso  ? Al
   Al11       1.0     0.495500     0.884800     0.253900    Uiso  ? Al
   Al12       1.0     0.500000     0.376000     0.500000    Uiso  ? Al
   Al13       1.0     0.252800     0.377400     0.053100    Uiso  ? Al
   Al14       1.0     0.248500     0.997900     0.198400    Uiso  ? Al
   Al15       1.0     0.409700     0.630100     0.105200    Uiso  ? Al
   Al16       1.0     0.421100     0.130200     0.101800    Uiso  ? Al
   Al17       1.0     0.085600     0.741400     0.143900    Uiso  ? Al
   Al18       1.0     0.335200     0.739500     0.828500    Uiso  ? Al
   Al99       1.0     0.916900     0.745200     0.349000    Uiso  ? Al
   O1         1.0     0.339400     0.375200     0.718600    Uiso  ? O
   O2         1.0     0.337400     0.626500     0.708600    Uiso  ? O
   O3         1.0     0.336100     0.875100     0.714000    Uiso  ? O
   O4         1.0     0.002000     0.110300     0.373800    Uiso  ? O
   O5         1.0     0.497300     0.492600     0.376700    Uiso  ? O
   O6         1.0     0.493900     0.761500     0.372200    Uiso  ? O
   O7         1.0     0.008200     0.615200     0.381300    Uiso  ? O
   O8         1.0     0.986600     0.881500     0.368800    Uiso  ? O
   O9         1.0     0.514300     0.994000     0.378400    Uiso  ? O
   O10        1.0     0.329800     0.122500     0.950000    Uiso  ? O
   O11        1.0     0.167700     0.245100     0.044000    Uiso  ? O
   O12        1.0     0.343000     0.359900     0.956800    Uiso  ? O
   O13        1.0     0.160200     0.498800     0.027900    Uiso  ? O
   O14        1.0     0.166000     0.497700     0.319200    Uiso  ? O
   O15        1.0     0.340500     0.626700     0.224900    Uiso  ? O
   O16        1.0     0.673000     0.638100     0.045600    Uiso  ? O
   O17        1.0     0.156500     0.747000     0.026900    Uiso  ? O
   O18        1.0     0.170900     0.737700     0.294600    Uiso  ? O
   O19        1.0     0.336900     0.876100     0.936700    Uiso  ? O
   O20        1.0     0.153900     0.515100     0.788400    Uiso  ? O
   O21        1.0     0.162700     0.495900     0.540100    Uiso  ? O
   O22        1.0     0.496700     0.761500     0.872700    Uiso  ? O
   O23        1.0     0.003100     0.880000     0.875900    Uiso  ? O
   O24        1.0     0.172700     0.749600     0.803700    Uiso  ? O
